data/radial_test/case74ds.m
function mpc = case74ds
%CASE74DS

%% MATPOWER Case Format : Version 2
mpc.version = '2';

%%-----  Power Flow Data  -----%%
%% system MVA base
mpc.baseMVA = 1;

%% bus data
%	bus_i	type	Pd	Qd	Gs	Bs	area	Vm	Va	baseKV	zone	Vmax	Vmin
mpc.bus = [
	1	3	0	0	0	0	1	1	0	11	1	1	1;
	2	1	0.193	0.13	0	0	1	1	0	11	1	1.1	0.9;
	3	1	0.001	0.001	0	0	1	1	0	11	1	1.1	0.9;
	4	1	0.003	0.002	0	0	1	1	0	11	1	1.1	0.9;
	5	1	0.108	0.073	0	0	1	1	0	11	1	1.1	0.9;
	6	1	0.005	0.003	0	0	1	1	0	11	1	1.1	0.9;
	7	1	0.018	0.012	0	0	1	1	0	11	1	1.1	0.9;
	8	1	0.016	0.011	0	0	1	1	0	11	1	1.1	0.9;
	9	1	0.076	0.051	0	0	1	1	0	11	1	1.1	0.9;
	10	1	0.052	0.035	0	0	1	1	0	11	1	1.1	0.9;
	11	1	0.046	0.031	0	0	1	1	0	11	1	1.1	0.9;
	12	1	0.123	0.083	0	0	1	1	0	11	1	1.1	0.9;
	13	1	0.046	0.031	0	0	1	1	0	11	1	1.1	0.9;
	14	1	0.007	0.004	0	0	1	1	0	11	1	1.1	0.9;
	15	1	0.07	0.047	0	0	1	1	0	11	1	1.1	0.9;
	16	1	0.07	0.047	0	0	1	1	0	11	1	1.1	0.9;
	17	1	0.004	0.003	0	0	1	1	0	11	1	1.1	0.9;
	18	1	0.049	0.033	0	0	1	1	0	11	1	1.1	0.9;
	19	1	0.057	0.038	0	0	1	1	0	11	1	1.1	0.9;
	20	1	0.118	0.079	0	0	1	1	0	11	1	1.1	0.9;
	21	1	0.019	0.013	0	0	1	1	0	11	1	1.1	0.9;
	22	1	0.014	0.01	0	0	1	1	0	11	1	1.1	0.9;
	23	1	0.008	0.006	0	0	1	1	0	11	1	1.1	0.9;
	24	1	0.21	0.141	0	0	1	1	0	11	1	1.1	0.9;
	25	1	0.136	0.092	0	0	1	1	0	11	1	1.1	0.9;
	26	1	0.189	0.127	0	0	1	1	0	11	1	1.1	0.9;
	27	1	0.016	0.01	0	0	1	1	0	11	1	1.1	0.9;
	28	1	0.074	0.049	0	0	1	1	0	11	1	1.1	0.9;
	29	1	0.117	0.079	0	0	1	1	0	11	1	1.1	0.9;
	30	1	0.006	0.004	0	0	1	1	0	11	1	1.1	0.9;
	31	1	0.125	0.084	0	0	1	1	0	11	1	1.1	0.9;
	32	1	0.017	0.011	0	0	1	1	0	11	1	1.1	0.9;
	33	1	0.004	0.003	0	0	1	1	0	11	1	1.1	0.9;
	34	1	0.019	0.013	0	0	1	1	0	11	1	1.1	0.9;
	35	1	0.031	0.021	0	0	1	1	0	11	1	1.1	0.9;
	36	1	0.04	0.027	0	0	1	1	0	11	1	1.1	0.9;
	37	1	0.011	0.007	0	0	1	1	0	11	1	1.1	0.9;
	38	1	0.217	0.146	0	0	1	1	0	11	1	1.1	0.9;
	39	1	0.037	0.025	0	0	1	1	0	11	1	1.1	0.9;
	40	1	0.114	0.077	0	0	1	1	0	11	1	1.1	0.9;
	41	1	0.012	0.008	0	0	1	1	0	11	1	1.1	0.9;
	42	1	0.055	0.037	0	0	1	1	0	11	1	1.1	0.9;
	43	1	0.072	0.048	0	0	1	1	0	11	1	1.1	0.9;
	44	1	0.04	0.027	0	0	1	1	0	11	1	1.1	0.9;
	45	1	0.004	0.003	0	0	1	1	0	11	1	1.1	0.9;
	46	1	0.041	0.027	0	0	1	1	0	11	1	1.1	0.9;
	47	1	0.042	0.028	0	0	1	1	0	11	1	1.1	0.9;
	48	1	0.049	0.033	0	0	1	1	0	11	1	1.1	0.9;
	49	1	0.043	0.029	0	0	1	1	0	11	1	1.1	0.9;
	50	1	0.061	0.041	0	0	1	1	0	11	1	1.1	0.9;
	51	1	0.046	0.031	0	0	1	1	0	11	1	1.1	0.9;
	52	1	0.01	0.007	0	0	1	1	0	11	1	1.1	0.9;
	53	1	0.009	0.006	0	0	1	1	0	11	1	1.1	0.9;
	54	1	0.065	0.044	0	0	1	1	0	11	1	1.1	0.9;
	55	1	0.045	0.03	0	0	1	1	0	11	1	1.1	0.9;
	56	1	0.076	0.051	0	0	1	1	0	11	1	1.1	0.9;
	57	1	0.071	0.048	0	0	1	1	0	11	1	1.1	0.9;
	58	1	0.394	0.265	0	0	1	1	0	11	1	1.1	0.9;
	59	1	0.234	0.157	0	0	1	1	0	11	1	1.1	0.9;
	60	1	0.227	0.153	0	0	1	1	0	11	1	1.1	0.9;
	61	1	0.225	0.151	0	0	1	1	0	11	1	1.1	0.9;
	62	1	0.192	0.129	0	0	1	1	0	11	1	1.1	0.9;
	63	1	0.118	0.079	0	0	1	1	0	11	1	1.1	0.9;
	64	1	0.418	0.281	0	0	1	1	0	11	1	1.1	0.9;
	65	1	0.234	0.157	0	0	1	1	0	11	1	1.1	0.9;
	66	1	0.221	0.148	0	0	1	1	0	11	1	1.1	0.9;
	67	1	0.198	0.133	0	0	1	1	0	11	1	1.1	0.9;
	68	1	0.249	0.167	0	0	1	1	0	11	1	1.1	0.9;
	69	1	0.113	0.076	0	0	1	1	0	11	1	1.1	0.9;
	70	1	0.096	0.064	0	0	1	1	0	11	1	1.1	0.9;
	71	1	0.091	0.061	0	0	1	1	0	11	1	1.1	0.9;
	72	1	0.116	0.078	0	0	1	1	0	11	1	1.1	0.9;
	73	1	0.168	0.113	0	0	1	1	0	11	1	1.1	0.9;
	74	1	0.116	0.078	0	0	1	1	0	11	1	1.1	0.9;
];

%% generator data
%	bus	Pg	Qg	Qmax	Qmin	Vg	mBase	status	Pmax	Pmin	Pc1	Pc2	Qc1min	Qc1max	Qc2min	Qc2max	ramp_agc	ramp_10	ramp_30	ramp_q	apf
mpc.gen = [
	1	0	0	10	-10	1	100	1	10	0	0	0	0	0	0	0	0	0	0	0	0;
];

%% branch data
%	fbus	tbus	r	x	b	rateA	rateB	rateC	ratio	angle	status	angmin	angmax
mpc.branch = [
	1	2	0.00047768595	0.000361983471	0	0	0	0	0	0	1	-360	360;
	2	3	0.000466115702	0.000353719008	0	0	0	0	0	0	1	-360	360;
	3	4	0.000356198347	0.000270247934	0	0	0	0	0	0	1	-360	360;
	4	5	0.000356198347	0.000270247934	0	0	0	0	0	0	1	-360	360;
	5	6	0.000297520661	0.000225619835	0	0	0	0	0	0	1	-360	360;
	6	7	0.000297520661	0.000225619835	0	0	0	0	0	0	1	-360	360;
	7	8	0.000238842975	0.000180991736	0	0	0	0	0	0	1	-360	360;
	8	9	0.000238842975	0.000180991736	0	0	0	0	0	0	1	-360	360;
	9	10	0.000238842975	0.000180991736	0	0	0	0	0	0	1	-360	360;
	10	11	0.000238842975	0.000180991736	0	0	0	0	0	0	1	-360	360;
	11	12	0.000238842975	0.000180991736	0	0	0	0	0	0	1	-360	360;
	12	13	0.000238842975	0.000180991736	0	0	0	0	0	0	1	-360	360;
	13	14	0.000238842975	0.000180991736	0	0	0	0	0	0	1	-360	360;
	14	15	0.000238842975	0.000180991736	0	0	0	0	0	0	1	-360	360;
	15	16	0.000384297521	0.000290909091	0	0	0	0	0	0	1	-360	360;
	16	17	0.000384297521	0.000290909091	0	0	0	0	0	0	1	-360	360;
	17	18	0.000384297521	0.000290909091	0	0	0	0	0	0	1	-360	360;
	18	19	0.000384297521	0.000290909091	0	0	0	0	0	0	1	-360	360;
	19	20	0.000333057851	0.000252066116	0	0	0	0	0	0	1	-360	360;
	20	21	0.000333057851	0.000252066116	0	0	0	0	0	0	1	-360	360;
	21	22	0.000333057851	0.000252066116	0	0	0	0	0	0	1	-360	360;
	22	23	0.000333057851	0.000252066116	0	0	0	0	0	0	1	-360	360;
	23	24	0.000419008264	0.000317355372	0	0	0	0	0	0	1	-360	360;
	24	25	0.000297520661	0.000225619835	0	0	0	0	0	0	1	-360	360;
	25	26	0.000371900826	0.000281818182	0	0	0	0	0	0	1	-360	360;
	26	27	0.000371900826	0.000281818182	0	0	0	0	0	0	1	-360	360;
	27	28	0.000371900826	0.000281818182	0	0	0	0	0	0	1	-360	360;
	28	29	0.000238842975	0.000180991736	0	0	0	0	0	0	1	-360	360;
	29	30	0.000238842975	0.000180991736	0	0	0	0	0	0	1	-360	360;
	30	31	0.000356198347	0.000270247934	0	0	0	0	0	0	1	-360	360;
	31	32	0.000333057851	0.000252066116	0	0	0	0	0	0	1	-360	360;
	32	33	0.000297520661	0.000225619835	0	0	0	0	0	0	1	-360	360;
	33	34	0.000356198347	0.000270247934	0	0	0	0	0	0	1	-360	360;
	34	35	0.000384297521	0.000290909091	0	0	0	0	0	0	1	-360	360;
	35	36	0.000384297521	0.000290909091	0	0	0	0	0	0	1	-360	360;
	36	37	0.0004	0.000302479339	0	0	0	0	0	0	1	-360	360;
	37	38	0.0004	0.000302479339	0	0	0	0	0	0	1	-360	360;
	38	39	0.000356198347	0.000270247934	0	0	0	0	0	0	1	-360	360;
	39	40	0.000356198347	0.000270247934	0	0	0	0	0	0	1	-360	360;
	40	41	0.000297520661	0.000225619835	0	0	0	0	0	0	1	-360	360;
	41	42	0.000297520661	0.000225619835	0	0	0	0	0	0	1	-360	360;
	42	43	0.00047768595	0.000361983471	0	0	0	0	0	0	1	-360	360;
	43	44	0.000384297521	0.000290909091	0	0	0	0	0	0	1	-360	360;
	44	45	0.000419008264	0.000317355372	0	0	0	0	0	0	1	-360	360;
	45	46	0.000442975207	0.00033553719	0	0	0	0	0	0	1	-360	360;
	46	47	0.000453719008	0.000344628099	0	0	0	0	0	0	1	-360	360;
	47	48	0.000466115702	0.000353719008	0	0	0	0	0	0	1	-360	360;
	48	49	0.000348760331	0.000263636364	0	0	0	0	0	0	1	-360	360;
	49	50	0.000356198347	0.000270247934	0	0	0	0	0	0	1	-360	360;
	50	51	0.000536363636	0.00040661157	0	0	0	0	0	0	1	-360	360;
	51	52	0.00051322314	0.000389256198	0	0	0	0	0	0	1	-360	360;
	52	53	0.000524793388	0.000397520661	0	0	0	0	0	0	1	-360	360;
	53	54	0.000524793388	0.000397520661	0	0	0	0	0	0	1	-360	360;
	54	55	0.000524793388	0.000397520661	0	0	0	0	0	0	1	-360	360;
	55	56	0.000262809917	0.000199173554	0	0	0	0	0	0	1	-360	360;
	56	57	0.000262809917	0.000199173554	0	0	0	0	0	0	1	-360	360;
	1	58	0.00166115702	0.00125867769	0	0	0	0	0	0	1	-360	360;
	58	59	0.000595867769	0.000451239669	0	0	0	0	0	0	1	-360	360;
	59	60	0.000595867769	0.000451239669	0	0	0	0	0	0	1	-360	360;
	60	61	0.000595867769	0.000451239669	0	0	0	0	0	0	1	-360	360;
	61	62	0.000595867769	0.000451239669	0	0	0	0	0	0	1	-360	360;
	62	63	0.000595867769	0.000451239669	0	0	0	0	0	0	1	-360	360;
	63	64	0.000595867769	0.000451239669	0	0	0	0	0	0	1	-360	360;
	64	65	0.000595867769	0.000451239669	0	0	0	0	0	0	1	-360	360;
	65	66	0.000595867769	0.000451239669	0	0	0	0	0	0	1	-360	360;
	66	67	0.000595867769	0.000451239669	0	0	0	0	0	0	1	-360	360;
	67	68	0.000595867769	0.000451239669	0	0	0	0	0	0	1	-360	360;
	68	69	0.000595867769	0.000451239669	0	0	0	0	0	0	1	-360	360;
	69	70	0.000595867769	0.000451239669	0	0	0	0	0	0	1	-360	360;
	1	71	0.00391818182	0.00296942149	0	0	0	0	0	0	1	-360	360;
	71	72	0.00195950413	0.00148512397	0	0	0	0	0	0	1	-360	360;
	72	73	0.00137107438	0.00103966942	0	0	0	0	0	0	1	-360	360;
	73	74	0.000885123967	0.00067107438	0	0	0	0	0	0	1	-360	360;
];

%%-----  OPF Data  -----%%
%% generator cost data
%	1	startup	shutdown	n	x1	y1	...	xn	yn
%	2	startup	shutdown	n	c(n-1)	...	c0
mpc.gencost = [
	2	0	0	3	0	20	0;
];
